Circuit: * D:\kicad\thomas-thermostat\v2.0\switchboard\v4.0\switchboard\simulation-ltspice\ltc4231-2.asc

Warning: Multiple definitions of model "u1:scpoff" Type: Switch
Direct Newton iteration failed to find .op point.  (Use ".option noopiter" to skip.)
Starting Gmin stepping
Gmin = 10
Gmin = 1.07374
Gmin = 0.115292
Gmin = 0.0123794
Gmin = 0.00132923
Gmin = 0.000142725
Gmin = 1.5325e-005
Gmin = 1.6455e-006
Gmin = 1.76685e-007
Gmin = 1.89714e-008
Gmin = 2.03704e-009
Gmin = 2.18725e-010
Gmin = 2.34854e-011
Gmin = 2.52173e-012
Gmin = 2.70769e-013
Gmin = 0
Gmin stepping succeeded in finding the operating point.

Heightened Def Con from 4.91338 to 4.91338

Date: Sun Sep 11 20:02:08 2022
Total elapsed time: 36.961 seconds.

tnom = 27
temp = 27
method = modified trap
totiter = 1744223
traniter = 1743655
tranpoints = 670815
accept = 456744
rejected = 214072
matrix size = 116
fillins = 37
solver = Normal
Thread vector: 15.5/12.2[4] 9.4/4.5[2] 4.5/5.3[1] 0.3/2.6[1]  2592/500
Matrix Compiler1: 7.54 KB object code size  1.8/1.2/[0.5]
Matrix Compiler2: 8.65 KB object code size  1.3/1.9/[0.5]

